<?xml version="1.0" encoding="UTF-8"?>

<!-- generated on 2022-11-05 15:38:21 by Eclipse SUMO duarouter Version 1.14.1
<configuration xmlns:xsi="http://www.w3.org/2001/XMLSchema-instance" xsi:noNamespaceSchemaLocation="http://sumo.dlr.de/xsd/duarouterConfiguration.xsd">

    <input>
        <net-file value="kalyani.net.xml"/>
        <route-files value="kalyani.trips.xml"/>
    </input>

    <output>
        <output-file value="kalyani.rou.xml"/>
    </output>

    <report>
        <ignore-errors value="true"/>
    </report>

</configuration>
-->

<routes xmlns:xsi="http://www.w3.org/2001/XMLSchema-instance" xsi:noNamespaceSchemaLocation="http://sumo.dlr.de/xsd/routes_file.xsd">
    <vehicle id="0" depart="0.00">
        <route edges="1030027370#1 -1005731034#0 1005463896#3 1005463896#4 1005463896#5 1005463896#6 1005463896#7 1005463896#8 1005463896#9 1005463896#10 1005463896#11 1005463896#12 145535309#9 145535309#10 145535309#11 145535309#12 145535309#13 145535309#14 145535309#16 145535309#17 890919773#0 890919773#1 890919773#2 -146184995#1 -146184995#0 890919786#1 -241116018#1 -241116018#0 -890919789 -890919771#1 -890919771#0 -890919772#1 -890919772#0 -147683814#2 -165014016#6 -1013641850 -1008297714#11 -1008297714#10"/>
    </vehicle>
    <vehicle id="1" depart="1.00">
        <route edges="-146185508#9 -146185588 146185570#1 146185570#2 44963239#8 44963239#10 44963239#11 44963239#12 44963235#2 44963235#3 44963235#4 44963235#5 44963235#6 890919780#1 890919780#2 890919780#3 890919780#4 -145529440#3 -145529440#2"/>
    </vehicle>
    <vehicle id="2" depart="2.00">
        <route edges="146175335#1 146175711#3 -146175334#0 -145531420#8 -145531420#7 -145531420#6 -145531420#5 -145531420#4 -145531420#3 -145531420#2 -145531420#1 -145531420#0 44963154#2 1013519536#0 1013519536#1 -52246594 -1042867910#0 -44963155#0 -1069810653#1 -1069810653#0 -1046462472#2 -1046462472#1 -1046462476 -1046462471#1 -1046462471#0 1046462467#0 1046462467#1 1046462467#2 1046462467#3 1046462467#4"/>
    </vehicle>
    <vehicle id="3" depart="3.00">
        <route edges="338422624#3 -338422624#3 1053022551 -803369011#0 -803369012#0 -338422623#2 -338422623#1 1014065065#0 -1014065065#0"/>
    </vehicle>
    <vehicle id="4" depart="4.00">
        <route edges="-44963240#2 44963240#2 44963240#3 44963240#4 44963240#5 145533698#9 145533698#10 145533698#12 145533698#13 145533698#14 145533698#15 145533698#16 145533698#17 146712295#0 146712295#1 145535309#16 145535309#17 890919773#0 890919773#1 890919773#2 -146184995#1 -146184995#0 890919786#1 -241116018#1 -241116018#0 -890919789 -890919771#1 -890919771#0 -890919772#1 -890919772#0 -147683814#2 -147683814#0 147934427#0 147934427#1 1008297720 1008297719#1 1008297714#6 1008297714#8 -1008297717"/>
    </vehicle>
    <vehicle id="5" depart="5.00">
        <route edges="-1053024747#7 1053024747#7 -1053024747#0 52246592#1 890734830 890734831 -803369012#1 803369011#0 -1053022551 338422624#3 146185311#0 146185311#1 146185311#2 146185311#3 146185311#4 146185311#5 146185311#6 146185311#7 146185311#8 146185311#9 890919786#0 890919786#1 -241116018#1 -241116018#0 -890919789 -890919771#1 -890919771#0 -890919772#1 -890919772#0 -147683814#2 -147683814#0 147934427#0 147934427#1 1008297720 1008297719#1 1008297714#6"/>
    </vehicle>
    <vehicle id="6" depart="6.00">
        <route edges="-1008297714#5 -1008297714#3 -1008297714#2 -1008297714#1 -1008297714#0 -147683814#0 -1013519537 890919772#0 890919772#1 890919771#0 890919771#1 890919789 241116018#0 241116018#1 890919787#0 890919787#1 890919787#2 -146185311#9 -146185311#8 -146185311#7 -146185311#6 -146185311#5 -146185311#4 -146185311#3 -146185311#2 -146185311#1 -146185311#0 -338422624#3 1053022551 -803369011#0 803369012#1 -890734831 -890734830 -52246592#1 -52246592#0 1063103845 -1042867910#0 -44963155#0 52246556#1 -1030382431#11 -1030382431#10 -1030382431#9 -1030382431#8 -1030382431#7 -1030382431#5 -1046462488"/>
    </vehicle>
    <vehicle id="7" depart="7.00">
        <route edges="1039246343 -1005731039#3 -1005731039#1 -1005731039#0 1005463896#5 1005463896#6 1005463896#7 1005463896#8 1005463896#9 1005463896#10 1005463897#0 1005463897#1 145535309#7 -240618497#1 -240618497#0 240618498#8 1013484948#0 1013484948#1 1013484948#2"/>
    </vehicle>
    <vehicle id="8" depart="8.00">
        <route edges="-1053024749#2 -1053024749#1 1053024750#1 -1053024747#1 -1053024747#0 52246592#1 52246592#2 52246592#3 52246592#4 -1017764598#1 -1017764598#0 262415254 -1046462455 1017764596#0 1017764596#1 262415263#5 1046462454 1017764606#0"/>
    </vehicle>
    <vehicle id="9" depart="9.00">
        <route edges="186670931#6 186670931#7 890919780#3 890919780#4 890919781#0 890919781#1 890919781#2 890919781#3 338422624#1 338422624#2 1005731020#1 1005731020#2 1005731020#3 1005731020#4 1005731020#5 1005731025 -1005731021#0"/>
    </vehicle>
    <vehicle id="10" depart="10.00">
        <route edges="186555989#0 -186555991 -186555982#0 146185508#10 44963239#6 44963239#7 44963239#8 44963239#10 44963239#11 44963239#12 44963235#2 44963235#3 44963235#4 44963235#5 44963235#6 890919780#1 890919780#2 890919780#3 890919780#4 890919782#0 890919782#1 890919782#2 890919782#3 890919782#4 890919782#5 1013519536#0 1013519536#1 -52246594 -1042867910#0 -44963155#0 52246556#1 -1053022552#3 -1053022552#2 1053023879"/>
    </vehicle>
    <vehicle id="11" depart="11.00">
        <route edges="-240618503 240618504#2 -44963240#0 241116028#14 241116028#15 241116028#16 241116028#17 241116028#18 241116028#19 -145531420#9 -145531420#8 -145531420#7 -145531420#6 -145531420#5 -145531420#4 -145531420#3 -145531420#2 -145531420#1 -145531420#0 44963154#2 1013519536#0 1013519536#1 -52246594 -1042867910#0 -44963155#0 52246556#1 -1030382431#11 -1030382431#10 -1030382431#9 -1030382431#8 -1030382431#7 -1030382431#5 -1030382431#4 -1030382431#3 -1030382431#2 -1030382431#1 -1030382431#0"/>
    </vehicle>
    <vehicle id="12" depart="12.00">
        <route edges="890733333#1 890733333#2 890733333#3 380713429#0 380713429#1 145533698#8 145533698#9 145533698#10 145533698#12 145533698#13 145533698#14 145533698#15 145533698#16 145533698#17 146712295#0 146712295#1 145535309#16 145535309#17 890919773#0 890919773#1 890919773#2 -146184995#1 -146184995#0 890919786#1 890919787#0 -146185210#1 -146185210#0 890919790#0 890919790#2 146999654#0 146999654#1 146999653 1013519532#0 -241116023#4 -241116023#3"/>
    </vehicle>
    <vehicle id="13" depart="13.00">
        <route edges="-1017764586#1 1017764586#1 1017764589#0 -1017764592#1"/>
    </vehicle>
    <vehicle id="14" depart="14.00">
        <route edges="262415248#2 262415258#2 -890919782#1 -890919782#0 890919781#0 890919781#1 890919781#2 890919781#3 338422624#1 338422624#2 1005731020#1 1005731020#2 1005731020#3 1005731020#4 1005731020#5 1005731020#6 1005731020#7 -262415265#7 -262415265#6 -262415265#5 -262415265#4 -262415265#3 -1017767436#10 -1017767436#9 1017767426#0 1017767426#1 1017767426#2"/>
    </vehicle>
    <vehicle id="15" depart="15.00">
        <route edges="186555991 -186555991 -186555982#0 146185508#10 44963239#6 44963239#7 44963239#8 44963239#10 44963239#11 44963239#12 44963239#13 890919779#4 890919779#5 890919778#0 890919778#1 -44963240#10 -44963240#9 -44963240#8 -44963240#7 -44963240#6 -44963240#5 -44963240#4 -44963240#3 -44963240#2 -44963240#1 -44963240#0 241116028#14 241116028#15 241116028#16 145535309#3"/>
    </vehicle>
    <vehicle id="16" depart="16.00">
        <route edges="1013482244#1 -1013482244#1 -1013482244#0 -1013482242#2 -1013482243 -146185386#2 -890734827#4 -890734827#3 -890734827#2 -890734827#1 890734827#1"/>
    </vehicle>
    <vehicle id="17" depart="17.00">
        <route edges="-262504079#2 -262504079#1 -262504079#0 -146185739#4 -146185739#3 -146185739#2 -146185739#0 145529440#3 44963182#0 44963182#1 44963182#2 44963182#3 890919777 890919779#0 890919779#1 890919779#2 890919779#3 890919779#4 890919779#5 -890919776 44963244#0 44963244#1 44963244#2 -890919774#1 -1013484964#1 1013484965#0 1013484965#1 1013484965#2"/>
    </vehicle>
    <vehicle id="18" depart="18.00">
        <route edges="240618500#2 241116028#13 241116028#14 241116028#15 241116028#16 241116028#17 241116028#18 241116028#19 145532452#0 145532452#1 145532452#3 145532452#4 890922318#0 890922318#1 890922318#2 145529440#0 145529440#1 145529440#2 145529440#3 890919781#0 890919781#1 890919781#2 890919781#3 338422624#1 338422624#2 1005731020#1 1005731020#2 1005731020#3 1005731020#4 1005731020#5 1005731020#6 1005731020#7 -262415265#7 -262415265#6 1017767439#0 1017767439#1"/>
    </vehicle>
    <vehicle id="19" depart="19.00">
        <route edges="262415263#6 262415263#7 262415263#8 262415263#9 262415263#10 262415263#11 262415263#12 -1017764591#4 -1017764591#3 -1017764591#2 -1017764591#1 -1017764591#0 1017764591#0"/>
    </vehicle>
    <vehicle id="20" depart="20.00">
        <route edges="1053024751 -1053024749#1 1053024750#1 -1053024747#1 -1053024747#0 52246592#1 890734830 890734831 -803369012#1 803369011#0 -1053022551 338422624#3 -338422625 -1013482240 1013482241#0 1013482241#1 1013482241#2 1013482241#3 1013482241#4 -1013482241#4"/>
    </vehicle>
    <vehicle id="21" depart="21.00">
        <route edges="-1083757469#1 1083757469#1 -147934427#2 -147934427#1 -147934427#0 -1013519537 890919772#0 890919772#1 890919771#0 890919771#1 890919789 241116018#0 241116018#1 890919787#0 890919787#1 890919787#2 -146185311#9 -146185311#8 -146185311#7 -146185311#6 -146185311#5 -146185311#4 44963238#0 44963238#1 44963238#2 44963238#3 -147001919#3 -147001919#2 -147001919#1 -147001919#0"/>
    </vehicle>
    <vehicle id="22" depart="22.00">
        <route edges="-1013484980#2 1013484980#2 -338422624#0 -890919781#2 -890919781#1 -890919781#0 -145529440#3 -145529440#2 -145529440#1 -145529440#0 -890922318#2 -890922318#1 145533698#1 145533698#2 145533698#3 145533698#4 145533698#5 145533698#6 -145533698#6"/>
    </vehicle>
    <vehicle id="23" depart="23.00">
        <route edges="-1017764594#0 1046462456#1 1046462456#2 1046462456#3 1046462456#4 146999664#4 146999664#5 146999664#6 146999664#7 146999664#8 146999664#9 146999664#10 146999664#11 -146999664#11"/>
    </vehicle>
    <vehicle id="24" depart="24.00">
        <route edges="1030027365#0 -1030027365#0 1005463896#6 1005463896#7 1005463896#8 1005463896#9 1005463896#10 1005463896#11 1005463896#12 145535309#9 145535309#10 145535309#11 145535309#12 145535309#13 145535309#14 145535309#16 145535309#17 890919773#0 890919773#1 890919773#2 -146184995#1 -146184995#0 890919786#1 890919787#0 -146185210#1 -146185210#0 890919790#0 890919790#2 146999654#0 146999654#1 146999653 1013519532#0 1013519532#1 146999664#0 146999664#1 146999664#2 146999664#3 146999664#4 146999664#5 146999664#6 146999664#7 262415268#0 262415268#1 262415268#2 262415268#3 262415268#4 262415268#5 262415268#6 262415268#7 -262415268#7"/>
    </vehicle>
    <vehicle id="25" depart="25.00">
        <route edges="-262415267#1 262415267#1 262415267#2 -146999572#4 -146999572#3 -52246592#5 -52246592#4 -52246592#3 -52246592#2 -52246592#1 1053024747#0 -1053024747#7 -1053024747#6 -1053024747#5"/>
    </vehicle>
    <vehicle id="26" depart="26.00">
        <route edges="-146185386#2 -146185386#1 -146185386#0 890919779#2 890919779#3 890919779#4 890919779#5 890919778#0 -44963241#7 -44963241#6 -44963241#5 -44963241#4 -44963241#3 -44963241#2 890693865#1"/>
    </vehicle>
    <vehicle id="27" depart="27.00">
        <route edges="1030382431#7 1030382431#8 1030382431#9 1030382431#10 1030382431#11 -52246556#1 -52246556#0 44963155#1 1063103844#4 52246592#0 52246592#1 52246592#2 52246592#3 52246592#4 -1017764598#1 -1017764598#0 262415254 1046462456#0 1046462456#1 1046462456#2 1046462456#3 1046462456#4 146999664#4 146999664#5 146999664#6 146999664#7 146999664#8 1017767436#0 1017767436#1 1017767436#2 1017767430#0"/>
    </vehicle>
    <vehicle id="28" depart="28.00">
        <route edges="-1046461392 241116028#3 145535309#16 145535309#17"/>
    </vehicle>
    <vehicle id="29" depart="29.00">
        <route edges="-1038980426#1 -1038980426#0 -52246556#3 -52246556#2 -52246556#1 -52246556#0 44963155#1 1042867910#2 44963154#0 44963154#1 145531420#0 145531420#1 145531420#2 145531420#3 145531420#4 145531420#5 -146176834#7 -146176834#5 -146176834#3 -146176834#2 300531943#0 -300531943#0"/>
    </vehicle>
    <vehicle id="30" depart="30.00">
        <route edges="890919782#0 890919782#1 890919782#2 890919782#3 890919782#4 890919782#5 1013519536#0 1013519536#1 -52246594 -1042867910#0 -44963155#0 -1069810653#1 -1069810653#0 -1046462472#2 -1046462472#1 -1046462476 -1046462471#1 -1046462471#0 1046462467#0 1046462467#1 1046462467#2 1046462467#3 1046462467#4 -1074097804 1030382423#0 1030382423#1 1030382423#2 1030382423#3 1030382423#4"/>
    </vehicle>
    <vehicle id="31" depart="31.00">
        <route edges="1013484956#1 -1103408602 -145533698#10 -145533698#9 -145533698#8 -145533698#6 -145533698#5 -145533698#4 -145533698#3 -145533698#2 -145533698#1 890922318#1 890922318#2 145529440#0 145529440#1 145529440#2 145529440#3 890919782#0 890919782#1 890919782#2 890919782#3 890919782#4 890919782#5 1013519536#0 1013519536#1 -52246594 -1042867910#0 -44963155#0 52246556#1 52246556#2 1046462484#0 1046462484#1 1046462484#2 1046462484#3"/>
    </vehicle>
    <vehicle id="32" depart="32.00">
        <route edges="262415244#1 262415244#2 262415244#3 262415244#4 262415244#5 262415244#6 262415244#7 262415244#9 890919781#3 338422624#1 338422624#2 338422624#3 146185311#0 146185311#1 146185311#2 146185311#3 146185311#4 146185311#5 146185311#6 146185311#7 146185311#8 146185311#9 890919786#0 890919786#1 890919787#0 -146185210#1 -146185210#0 890919790#0 890919790#2 146999654#0 146999654#1 146999653 1013519532#0 1013519532#1 146999664#0 146999664#1"/>
    </vehicle>
    <vehicle id="33" depart="33.00">
        <route edges="-1102808755 890919783#3 44963244#1 44963244#2 890919773#0 890919773#1 890919773#2 -146184995#1 -146184995#0 890919786#1 -241116018#1 -241116018#0 -890919789 -890919771#1 -890919771#0 -890919772#1 -890919772#0 -147683814#2 -165014016#6 -165014016#5 -165014016#4 -165014016#3 -165014016#2 -1011172811"/>
    </vehicle>
    <vehicle id="34" depart="34.00">
        <route edges="-186555986#1 186555986#1 -146185508#6 146185570#0 146185570#1 146185570#2 44963239#8 44963239#10 44963239#11 44963239#12 44963235#2 44963235#3 44963235#4 44963235#5 44963235#6 890919780#1 890919780#2 890919780#3 890919780#4 -145529440#3 146185739#0 146185739#2 146185739#3 -146185739#3"/>
    </vehicle>
    <vehicle id="35" depart="35.00">
        <route edges="-1046463981 1046463981 -146999572#3 -52246592#5 -52246592#4 -52246592#3 -52246592#2 890734830 890734831 -803369012#1 803369011#0 -1053022551 -338422624#2 -146185386#6 -146185386#5 -146185386#4 -146185386#3 -146185386#2 -146185386#1 -146185386#0 890919779#2 890919779#3 890919779#4 890919779#5 -890919776 44963244#0 44963244#1 44963244#2 241116028#0 241116028#1 241116028#2 241116028#3 241116028#4 241116028#5 890733311#1"/>
    </vehicle>
    <vehicle id="36" depart="36.00">
        <route edges="262504080#3 -145531420#4 -145531420#3 -145531420#2 -145531420#1 -145531420#0 44963154#2 -890919782#5 -890919782#4 -890919782#3 -890919782#2 -890919782#1 -890919782#0 44963182#0 44963182#1 44963182#2 44963182#3 890919777 890919779#0 890919779#1 890919779#2 890919779#3 890919779#4 890919779#5 -890919776 44963244#0 240336411#1 240336411#3 240336418#0 240336418#1 240336418#2 240336408#0 -240336408#0"/>
    </vehicle>
    <vehicle id="37" depart="37.00">
        <route edges="1046461387 1046461388 890733340#3 145889835#6 -145533698#4 -145533698#3 -145533698#2 -145533698#1 890922318#1 890922318#2 145529440#0 145529440#1 145529440#2 145529440#3 890919781#0 890919781#1 890919781#2 890919781#3 338422624#1 338422624#2 1005731020#1 1005731020#2 1005731020#3 1005731020#4 1005731020#5 1005731020#6 1005731020#7 262415254 1046462456#0 1046462456#1 1046462456#2 1046462456#3 1046462456#4 146999664#4 146999664#5 146999664#6 146999664#7 146999664#8 146999664#9 146999664#10 146999664#11 146999664#12 146999664#13 146999664#14 146999664#15 146999664#16 146999664#17 146999664#18 146999664#19 380713001#0 380713001#1 -380713073#3"/>
    </vehicle>
    <vehicle id="38" depart="38.00">
        <route edges="44963237#1 44963237#2 44963237#3 44963237#4 -890733349"/>
    </vehicle>
    <vehicle id="39" depart="39.00">
        <route edges="-146185311#4 44963238#0 44963238#1 44963238#2 44963238#3 44963238#5 44963235#3 44963235#4 44963235#5 44963235#6 890919780#1 186670934#0 186670934#1 186670934#2 -146177316#9 -146177316#8 -146177316#7"/>
    </vehicle>
    <vehicle id="40" depart="40.00">
        <route edges="1013484966 -1013484965#0 1013484964#1 890919774#1 890919783#1 890919783#2 890919783#3 890919783#4 44963235#1 44963235#2 -44963238#5 -44963238#3 -44963238#2 -146185507#9"/>
    </vehicle>
    <vehicle id="41" depart="41.00">
        <route edges="1017764591#0 1017764591#1 -1017764589#1 -1017764589#0 -1017764587#1 -1017764587#0 146999664#5 146999664#6 146999664#7 146999664#8 146999664#9 146999664#10 146999664#11 146999664#12 146999664#13 146999664#14 146999664#15 146999664#16 146999664#17 -380713000#4 -380713000#2 380713071#0 380713071#1"/>
    </vehicle>
    <vehicle id="42" depart="42.00">
        <route edges="-349649168#1 349649168#1 349649168#2 349649168#3 263263998#4 44963240#9 890919775#2 890919775#3 890919775#4 44963235#0 44963235#1 -44963239#12 -44963239#11 -44963239#10 -44963239#8 -44963239#7 -44963239#6 -44963239#5 -44963239#4 -44963239#2 -44963239#1 -44963239#0 -146184995#0 890919786#1 -241116018#1 -241116018#0 -890919789 -890919771#1 -890919771#0 -890919772#1 -890919772#0 -147683814#2 -147683814#0 147934427#0 147934427#1 147934427#2 147934427#3 147934427#4 147934427#5 -1088068520"/>
    </vehicle>
    <vehicle id="43" depart="43.00">
        <route edges="890922318#1 890922318#2 145529440#0 145529440#1 145529440#2 145529440#3 890919781#0 890919781#1 890919781#2 890919781#3 338422624#1 338422624#2 338422624#3 146185311#0 146185311#1 146185311#2 146185311#3 146185311#4 146185311#5 146185311#6 146185311#7 146185311#8 146185311#9 890919786#0 890919786#1 -241116018#1 -241116018#0 -890919789 -890919771#1 -890919771#0 -890919772#1 -890919772#0 -147683814#2 -165014016#6 -165014016#5 -165014016#4 1011172809#0"/>
    </vehicle>
    <vehicle id="44" depart="44.00">
        <route edges="-1017270117#0 241116018#1 890919787#0 890919787#1 890919787#2 -146185311#9 -146185311#8 -146185311#7 -146185311#6 -146185311#5 -146185311#4 44963238#0 44963238#1 44963238#2 -147001779#4 -147001779#3 -1013482245#0 -1013482242#3"/>
    </vehicle>
    <vehicle id="45" depart="45.00">
        <route edges="-1017764606#1 -1017764606#0 -1046462454 -262415263#5 -262415263#4 -262415263#3 -262415263#2 -262415263#1 262415265#7 -1005731020#7 -1005731020#6 -1005731020#5 -1005731020#4 -1005731020#3 -1005731020#2 -1005731020#1 -338422624#2 -338422624#1 -338422624#0 -890919781#2 -890919781#1 -890919781#0 -145529440#3 -145529440#2 -145529440#1 -145529440#0 -890922318#2 -890922318#1 -890922318#0 -145532452#4 -145532452#3 -145532452#1 -145532452#0 145535309#0 145535309#1 145535309#2 145535309#3 145535309#5 145535309#6 -1005463897#1 -1005463897#0 -1005463896#10 -1005463896#9 -1039245444#1 -1030027362 1030027362"/>
    </vehicle>
    <vehicle id="46" depart="46.00">
        <route edges="147689033#0 147689033#1 147689033#2 147689033#3 147689033#4 147689033#5 165014053 890919772#0 890919772#1 890919771#0 890919771#1 890919789 241116018#0 241116018#1 890919787#0 890919787#1 890919787#2 -146185311#9 -146185311#8 -146185311#7 -146185311#6 -146185311#5 -146185311#4 -146185311#3 -146185311#2 -146185311#1 -146185311#0 -338422624#3 -338422624#2 -338422624#1 -338422624#0 -890919781#2 -890919781#1 -890919781#0 890919782#0 890919782#1 890919782#2 890919782#3 890919782#4 890919782#5 1013519536#0 1013519536#1 -52246594"/>
    </vehicle>
    <vehicle id="47" depart="47.00">
        <route edges="-1013484941 1013484941 -144366657#0 44963238#5 44963235#3 44963235#4 44963235#5 44963235#6 44963235#7 890919775#0 -44963237#7 -44963237#6 -44963237#5 -44963237#4 -44963237#3 -44963237#2 -44963237#1 -44963237#0 890922318#2 145529441#0 -300531945#3"/>
    </vehicle>
    <vehicle id="48" depart="48.00">
        <route edges="890919790#0 890919790#2 146999654#0 146999654#1 146999654#2 146185210#0 146185210#1 890919787#1 890919787#2 -146185311#9 -146185311#8 -146185311#7 -146185311#6 -146185311#5 -146185311#4 -146185311#3 -146185311#2 -146185311#1 -146185311#0 -338422624#3 -338422624#2 -146185386#6 -146185386#5 -1013482249#2 -1013482249#1 -1013482249#0 1013482248#1"/>
    </vehicle>
    <vehicle id="49" depart="49.00">
        <route edges="890733352#0 890733353 263263998#2 263263998#3 263263998#4 44963240#9 44963240#10 890919778#2 890919778#3 890919779#0 890919779#1 146185386#0 146185386#1 146185386#2 146185386#3 146185386#4 146185386#5 146185386#6 338422624#2 1005731020#1 1005731020#2 1005731020#3 1005731020#4 1005731020#5 1005731020#6 1005731020#7 -262415265#7 262415263#1 262415263#2 262415263#3 262415263#4 262415263#5"/>
    </vehicle>
    <vehicle id="50" depart="50.00">
        <route edges="-1005731028 -1005731027#2 -1005731027#1 -1005731027#0 -52246592#3 -52246592#2 890734830 145531423#0 145531423#1"/>
    </vehicle>
    <vehicle id="51" depart="51.00">
        <route edges="1046462467#3 -1046462467#3 -1046462467#2 -1046462467#1 -1046462467#0 1046462471#0 1046462471#1 1046462476 1046462472#1 1046462472#2 1046462472#3 1069810653#1 -52246556#0 44963155#1 1042867910#2 44963154#0 44963154#1 145531420#0 145531420#1 145531420#2 145531420#3 145531420#4 145531420#5 145531420#6 1013482258#0 1013482258#1 1013482262"/>
    </vehicle>
    <vehicle id="52" depart="52.00">
        <route edges="-146185386#1 44963235#6 890919780#1 890919780#2 890919780#3 890919780#4 890919782#0 890919782#1 890919782#2 890919782#3 890919782#4 890919782#5 1013519536#0 1013519536#1 -52246594 -1042867910#0 -44963155#0 -1069810653#1 -1069810653#0 -1046462472#2 -1046462472#1 -1046462476 -1046462471#1 -1046462471#0 1046462467#0 1046462467#1 1046462467#2 1046462467#3 1046462467#4 -1074097804 1030382426#3"/>
    </vehicle>
    <vehicle id="53" depart="53.00">
        <route edges="-1017764608#2 -1017764608#1 -1017764608#0 -262415263#2 -262415263#1 262415265#7 -1005731020#7 -1005731020#6 -1005731020#5 -1005731020#4 -1005731020#3 -1005731020#2 -1005731020#1 -338422624#2 -338422624#1 -338422624#0 -890919781#2 -890919781#1 -890919781#0 -145529440#3 -145529440#2 -145529440#1 -145529440#0 -890922318#2 -890922318#1 145533698#1 145533698#2 145533698#3 145533698#4 145533698#5 145533698#6 145533698#8 -44963240#5 -44963240#4 -890733311#12 -890733312#1"/>
    </vehicle>
    <vehicle id="54" depart="54.00">
        <route edges="-890733329#3 890733329#3 -890733330#1 -890733330#0 -890733328#3 890733328#3"/>
    </vehicle>
    <vehicle id="55" depart="55.00">
        <route edges="262504080#1 -1013482256 -262504078#2 -890734832#4 -890734832#3 -890734832#2 -890734832#0 -890919782#2 -890919782#1 -890919782#0 44963182#0 44963182#1 44963182#2 44963182#3 890919777 890919779#0 890919779#1 890919779#2 -44963238#6 -44963238#5 -44963238#3 146185508#0 146185508#1 -146185508#1"/>
    </vehicle>
    <vehicle id="56" depart="56.00">
        <route edges="1005731033#1 145535309#5 241116028#15 241116028#16 241116028#17 241116028#18 241116028#19 145532452#0 145532452#1 145532452#3 145532452#4 890922318#0 890922318#1 890922318#2 145529440#0 145529440#1 145529440#2 145529440#3 890919781#0 890919781#1 890919781#2 890919781#3 338422624#1 338422624#2 1005731020#1 1005731020#2 1005731020#3 1005731020#4 1005731020#5 1005731020#6 1005731020#7 -262415265#7 -262415265#6 -262415265#5 -262415265#4 -262415265#3 -262415265#2 -1046462445#6 -1046462445#5"/>
    </vehicle>
    <vehicle id="57" depart="57.00">
        <route edges="44963235#2 -44963238#5 144366657#0 144366657#2 -262502870#2 262502869#0"/>
    </vehicle>
    <vehicle id="58" depart="58.00">
        <route edges="-147001919#0 -890734827#4 -890734827#3 -890734827#2 -890734827#1 890919780#2 890919780#3 890919780#4 890919782#0 890919782#1 890919782#2 890919782#3 890919782#4 890919782#5 1013519536#0 1013519536#1 -52246594 -1042867910#0 -44963155#0 -1069810653#1 -1069810653#0 -1046462472#2 -1046462472#1 -1046462476 -1046462471#1 -1046462471#0 1046462467#0 1046462467#1 1046462467#2 1046462467#3 1046462467#4 -1074097804 1030382423#0 1030382423#1"/>
    </vehicle>
    <vehicle id="59" depart="59.00">
        <route edges="1017767424#0 1046462447#1 -1017767423#0 1017767436#7 1017767436#8 1017767436#9 1017767436#10 262415265#3 262415265#4 262415265#5 262415265#6 262415265#7 1017764598#0 1017764598#1 -52246592#4 -52246592#3 -52246592#2 -52246592#1 -52246592#0 1063103845 -1042867910#0 -44963155#0 -1069810653#1 -1069810653#0 -1046462472#2 -1046462472#1 -1046462476 -1046462471#1 -1046462471#0 1046462467#0 1046462467#1 1046462467#2 1046462467#3 1046462467#4 -1074097804 1030382423#0 -1030382423#0"/>
    </vehicle>
    <vehicle id="60" depart="60.00">
        <route edges="146185508#3 -146185508#3 -146185508#2 -146185508#1 -146185508#0 44963238#3 44963238#5 44963235#3 44963235#4 44963235#5 44963235#6 44963235#7 890919775#0 -44963237#7 -44963237#6 -44963237#5 -44963237#4 -44963237#3 146177316#3 -1013482267#2 -1013482267#1 -1013482267#0 1013482267#0"/>
    </vehicle>
    <vehicle id="61" depart="61.00">
        <route edges="146999664#16 -146999664#16 -146999664#15 -146999664#14 -146999664#13 -146999664#12 -146999664#11 -146999664#10 -146999664#9 -146999664#8 -146999664#7 -146999664#6 -146999664#5 -146999664#4 -1046462456#4 -1046462456#3 -1046462456#2 -1046462456#1 -1046462456#0 -262415254 -1005731020#7 -1005731020#6 -1005731020#5 -1005731020#4 -1005731020#3 -1005731020#2 -1005731020#1 -338422624#2 -146185386#6 -146185386#5 -1013482249#2 -1013482249#1 1013482250#0"/>
    </vehicle>
    <vehicle id="62" depart="62.00">
        <route edges="-1005463896#11 1005463896#11 1005463896#12 145535309#9 145535309#10 145535309#11 145535309#12 145535309#13 145535309#14 145535309#16 145535309#17 890919773#0 890919773#1 890919773#2 -1014065063 44963239#1 -240336653#3"/>
    </vehicle>
    <vehicle id="63" depart="63.00">
        <route edges="-1008297703#3 1008297703#3 -165014044#0 -147686885#2 -147686885#1 -147686885#0 890919774#1 890919783#1 890919783#2 890919783#3 890919783#4 890919783#5 890919779#5 890919778#0 890919778#1 890919778#2 890919778#3 890919779#0 890919780#0 890919780#1 890919780#2 890919780#3 890919780#4 890919782#0 890919782#1 890919782#2 890919782#3 890919782#4 890919782#5 1013519536#0 1013519536#1 -52246594 -1042867910#0 -44963155#0 52246556#1 52246556#2 52246556#3 52246556#4 -499822975#1 499883682#0 499883682#1 499883682#2"/>
    </vehicle>
    <vehicle id="64" depart="64.00">
        <route edges="262504568#1 -262504568#1 -890919782#4 -890919782#3 -890919782#2 -890919782#1 -890919782#0 -145529440#3 -145529440#2 -145529440#1 -145529440#0 -890922318#2 -890922318#1 145533698#1 145533698#2 145533698#3 145533698#4 145533698#5 145533698#6 145533698#8 145533698#9 145533698#10 145533698#12 -240618506#6 -240618506#5 -240618506#4 -240618506#3 240618506#3"/>
    </vehicle>
    <vehicle id="65" depart="65.00">
        <route edges="-165014016#1 165014016#1 165014016#2 165014016#3 165014016#4 165014016#5 165014016#6 -147683814#0 -1013519537 890919772#0 890919772#1 890919771#0 890919771#1 890919789 241116018#0 241116018#1 890919787#0 890919787#1 890919787#2 -146185311#9 -146185311#8 -146185311#7 -146185311#6 -146185311#5 -146185311#4 -146185311#3 -146185311#2 -146185311#1 -146185311#0 -338422624#3 -338422624#2 -338422624#1 -338422624#0 -890919781#2 -890919781#1 -890919781#0 890919782#0 -1013482263#1 -1013482263#0"/>
    </vehicle>
    <vehicle id="66" depart="66.00">
        <route edges="262504567#0 262504567#1 1013482255#1 1013482255#2 145531420#4 145531420#5 -146176834#7 -146176834#5 -146176834#3 -146176834#2 -146176834#1 -146176834#0 -145529441#1 -145529441#0 -890922318#2 -890922318#1 145533698#1 145533698#2 145533698#3 145533698#4 145533698#5 145533698#6 145533698#8 145533698#9 145533698#10 145533698#12 145533698#13 145533698#14 145533698#15 145533698#16 -890733314#1 890733315#0"/>
    </vehicle>
    <vehicle id="67" depart="67.00">
        <route edges="-1013829761#0 -1013829753#2 -1013829753#0 -146999664#13 -146999664#12 -146999664#11 -146999664#10 -146999664#9 -146999664#8 -146999664#7 -146999664#6 -146999664#5 -146999664#4 -1046462456#4 -1046462456#3 -1046462456#2 -1046462456#1 -1046462456#0 -262415254 -1005731020#7 -1005731020#6 -1005731020#5 -1005731020#4 1005731023"/>
    </vehicle>
    <vehicle id="68" depart="68.00">
        <route edges="-1013484956#0 380713426#1 380713426#2 44963241#5 44963241#6 890919775#4 44963235#0 44963235#1 44963235#2 -44963238#5 -44963238#3 -44963238#2 -146185507#9 -146185507#8 146185507#8"/>
    </vehicle>
    <vehicle id="69" depart="69.00">
        <route edges="146185739#2 -146185739#2 -146185739#0 145529440#3 890919781#0 890919781#1 890919781#2 890919781#3 338422624#1 338422624#2 1005731020#1 1005731020#2 1005731020#3 1005731020#4 1005731020#5 1005731020#6 1005731020#7 262415254 1046462456#0 1046462456#1 1046462456#2 1046462456#3 1046462456#4 146999664#4 146999664#5 146999664#6 146999664#7 146999664#8 146999664#9 146999664#10 -1046462449 -1017767427#8 -1017767427#7 -1017767430#2"/>
    </vehicle>
    <vehicle id="70" depart="70.00">
        <route edges="-890734829#4 1046461380#1 -890919781#1 -890919781#0 -145529440#3 -145529440#2 -145529440#1 -145529440#0 -890922318#2 -890922318#1 145533698#1 145533698#2 145533698#3 145533698#4 145533698#5 145533698#6 145533698#8 -44963240#5 -44963240#4 -44963240#3 -44963240#2 -44963240#1 -240618504#2 -240618504#1 1013484960"/>
    </vehicle>
    <vehicle id="71" depart="71.00">